22

N	-1.29100	-3.63000E-1	 6.86500E-1
N	 1.14350	-6.97800E-1	 6.86500E-1
N	 2.03800E-1	 1.48700	 7.07000E-2
N	-6.03000E-2	-4.33600E-1	-1.43890
C	-1.45100E-1	-1.05060	 1.36770
C	-1.08330	 1.12020	 7.49000E-1
C	-1.34490	-7.88800E-1	-7.50500E-1
C	 1.34290	 7.86900E-1	 7.50100E-1
C	 1.07930	-1.12330	-7.50500E-1
C	 1.47600E-1	 1.04970	-1.36250
H	-2.93600E-1	-2.13430	 1.37410
H	-1.06500E-1	-7.73400E-1	 2.42570
H	-1.08570	 1.46610	 1.78690
H	-1.92450	 1.64450	 2.85300E-1
H	-1.54150	-1.86200	-8.28200E-1
H	-2.19320	-3.18600E-1	-1.25720
H	 1.43810	 1.12000	 1.78790
H	 2.29460	 1.06550	 2.87000E-1
H	 9.78400E-1	-2.20970	-8.28800E-1
H	 2.02300	-9.00200E-1	-1.25790
H	-6.46600E-1	 1.57940	-1.89660
H	 1.06500	 1.33590	-1.88620
