84
XYZ
Mn            0.000000000     0.000000000     0.000000000
Cl            1.807500000     1.807500000    18.981900000
Cl            5.422500000     1.807500000     0.015456000
H             0.253050000     0.415002000     8.085420000
H            -1.124988000     0.035427000     7.577304000
H             0.287754000    -1.076547000     7.542528000
H             1.091730000    -0.015183000     5.809524000
H             0.016629000     1.259466000     5.890668000
H            -0.167736000    -0.449706000     5.363232000
Cl            0.198825000     0.217623000     2.471028000
C             0.247266000     0.205332000     6.039432000
N            -0.198825000    -0.112788000     7.430472000
Cl            7.031175000     7.012377000    16.848972000
Cl            5.422500000     5.422500000     0.338100000
Cl            1.807500000     5.422500000    19.304544000
Mn            3.615000000     3.615000000     0.000000000
N             3.416175000     3.502212000    11.889528000
C             3.862266000     3.820332000    13.280568000
H             3.447264000     3.165294000    13.956768000
H             3.631629000     4.874466000    13.429332000
H             4.706730000     3.599817000    13.510476000
H             3.902754000     2.538453000    11.777472000
H             2.490012000     3.650427000    11.742696000
H             3.868050000     4.030002000    11.234580000
N             7.428825000     3.502212000     2.229528000
C             6.982734000     3.820332000     3.620568000
H             7.397736000     3.165294000     4.296768000
H             7.213371000     4.874466000     3.769332000
H             6.138270000     3.599817000     3.850476000
H             6.942246000     2.538453000     2.117472000
H             8.354988000     3.650427000     2.082696000
H             6.976950000     4.030002000     1.574580000
N             3.416175000     7.342788000     2.229528000
C             3.862266000     7.024668000     3.620568000
H             3.447264000     7.679706000     4.296768000
H             3.631629000     5.970534000     3.769332000
H             4.706730000     7.245183000     3.850476000
H             3.902754000     8.306547000     2.117472000
H             2.490012000     7.194573000     2.082696000
H             3.868050000     6.814998000     1.574580000
N             7.428825000     7.342788000    11.889528000
C             6.982734000     7.024668000    13.280568000
H             7.397736000     7.679706000    13.956768000
H             7.213371000     5.970534000    13.429332000
H             6.138270000     7.245183000    13.510476000
H             6.942246000     8.306547000    11.777472000
H             8.354988000     7.194573000    11.742696000
H             6.976950000     6.814998000    11.234580000
Cl            3.813825000     3.832623000    16.848972000
N             3.813825000     3.727788000     7.430472000
C             3.367734000     3.409668000     6.039432000
Cl            3.416175000     3.397377000     2.471028000
H             3.782736000     4.064706000     5.363232000
H             3.598371000     2.355534000     5.890668000
H             2.523270000     3.630183000     5.809524000
H             3.327246000     4.691547000     7.542528000
H             4.739988000     3.579573000     7.577304000
H             3.361950000     3.199998000     8.085420000
Cl            7.031175000     3.832623000     7.188972000
N            -0.198825000     3.727788000    17.090472000
C             0.247266000     3.409668000    15.699432000
Cl            0.198825000     3.397377000    12.131028000
H            -0.167736000     4.064706000    15.023232000
H             0.016629000     2.355534000    15.550668000
H             1.091730000     3.630183000    15.469524000
H             0.287754000     4.691547000    17.202528000
H            -1.124988000     3.579573000    17.237304000
H             0.253050000     3.199998000    17.745420000
Mn            0.000000000     3.615000000     9.660000000
Cl            1.807500000     5.422500000     9.644544000
Cl            5.422500000     5.422500000     9.998100000
Cl            3.813825000     7.012377000     7.188972000
N             3.813825000    -0.112788000    17.090472000
C             3.367734000     0.205332000    15.699432000
Cl            3.416175000     0.217623000    12.131028000
H             3.782736000    -0.449706000    15.023232000
H             3.598371000     1.259466000    15.550668000
H             2.523270000    -0.015183000    15.469524000
H             3.327246000    -1.076547000    17.202528000
H             4.739988000     0.035427000    17.237304000
H             3.361950000     0.415002000    17.745420000
Cl            5.422500000     1.807500000     9.675456000
Cl            1.807500000     1.807500000     9.321900000
Mn            3.615000000     0.000000000     9.660000000
